!!>>>>>>>>>>>>>>>>>>>>>>>>>>>>>>>>>>>>>>>>>>>>>>>>>>>>>>>>>>>>>>>>>>>>>>
!! NEMO/OCE :   Reference namelist_ref                                !!
!!>>>>>>>>>>>>>>>>>>>>>>>>>>>>>>>>>>>>>>>>>>>>>>>>>>>>>>>>>>>>>>>>>>>>>>
!! NEMO/OCE  :  1 - Domain & run manager (namrun, namcfg, namdom, namtsd, namcrs, namc1d, namc1d_uvd)
!! namelists    2 - Surface boundary (namsbc, namsbc_flx, namsbc_blk, namsbc_cpl,
!!                                    namsbc_sas, namtra_qsr, namsbc_rnf,
!!                                    namisf, namsbc_apr, 
!!                                    namsbc_ssr, namsbc_wave, namberg)
!!              3 - lateral boundary (namlbc, namagrif, nambdy, nambdy_tide)
!!              4 - top/bot boundary (namdrg, namdrg_top, namdrg_bot, nambbc, nambbl)
!!              5 - Tracer           (nameos, namtra_adv, namtra_ldf, namtra_eiv, namtra_dmp)
!!              6 - dynamics         (namdyn_adv, namdyn_vor, namdyn_hpg, namdyn_spg, namdyn_ldf)
!!              7 - Vertical physics (namzdf, namzdf_ric, namzdf_tke, namzdf_gls, namzdf_iwm)
!!              8 - diagnostics      (namnc4, namtrd, namspr, namflo, namhsb)
!!              9 - Obs & Assim      (namobs, nam_asminc)
!!             10 - miscellaneous    (nammpp, namctl, namsto)
!!>>>>>>>>>>>>>>>>>>>>>>>>>>>>>>>>>>>>>>>>>>>>>>>>>>>>>>>>>>>>>>>>>>>>>>
!!
!!======================================================================
!!              ***  Domain & Run management namelists  ***           !!
!!                                                                    !!
!!   namrun       parameters of the run
!!   namdom       space and time domain
!!   namcfg       parameters of the configuration                       (default: user defined GYRE)
!!   namwad       Wetting and drying                                    (default: OFF)
!!   namtsd       data: temperature & salinity                          (default: OFF)
!!   namcrs       coarsened grid (for outputs and/or TOP)               (ln_crs =T)
!!   namc1d       1D configuration options                              (ln_c1d =T)
!!   namc1d_dyndmp 1D newtonian damping applied on currents             (ln_c1d =T)
!!   namc1d_uvd   1D data (currents)                                    (ln_c1d =T)
!!======================================================================
!
!-----------------------------------------------------------------------
&namrun        !   parameters of the run
!-----------------------------------------------------------------------
   nn_no       =       0   !  job number (no more used...)
   cn_exp      =  "MAUD12" !  experience name
   nn_it000    = 1       !  first time step
   nn_itend    = 580000    !  last  time step (std 5475)
   nn_date0    = 20070101  !  date at nit_0000 (format yyyymmdd) used if ln_rstart=F or (ln_rstart=T and nn_rstctl=0 or 1)
   nn_time0    =       0   !  initial time of day in hhmm
   nn_leapy    =       1   !  Leap year calendar (1) or not (0)
   ln_rstart   = .false.    !  start from rest (F) or from a restart file (T)
      ln_1st_euler   = .true.  !  =T force a start with forward time step (ln_rstart=T)
      nn_rstctl   =    2      !  restart control ==> activated only if ln_rstart=T
      !                          !    = 0 nn_date0 read in namelist ; nn_it000 : read in namelist
      !                          !    = 1 nn_date0 read in namelist ; nn_it000 : check consistancy between namelist and restart
      !                          !    = 2 nn_date0 read in restart  ; nn_it000 : check consistancy between namelist and restart
      cn_ocerst_in    = "MAUD12_00052000_restart_oce"   !  suffix of ocean restart name (input)
      cn_ocerst_indir = "."         !  directory from which to read input ocean restarts
      cn_ocerst_out   = "restart_oce"   !  suffix of ocean restart name (output)
      cn_ocerst_outdir = "."        !  directory in which to write output ocean restarts
   nn_istate   =   0       !  output the initial state (1) or not (0)
   nn_stock    =   50000   !  used only if ln_rst_list = F: output restart freqeuncy (modulo referenced to 1)
   nn_write    =   50000   !  used only if key_xios is not defined: output frequency (modulo referenced to nn_it000)
   ln_mskland  = .true.   !  mask land points in NetCDF outputs
/
!-----------------------------------------------------------------------
&namdom        !   time and space domain
!-----------------------------------------------------------------------
   rn_Dt      = 600.     !  time step for the dynamics and tracer
   ln_meshmask = .false.    !  =T create a mesh file
/
!-----------------------------------------------------------------------
&namcfg        !   parameters of the configuration                      (default: use namusr_def in namelist_cfg)
!-----------------------------------------------------------------------
   ln_read_cfg = .true.    !  (=T) read the domain configuration file
      !                    !  (=F) user defined configuration           (F => create/check namusr_def)
      cn_domcfg = "1_domain_cfg_50levels_new"  ! domain configuration filename
/
!-----------------------------------------------------------------------
&namtile        !   parameters of the tiling
!-----------------------------------------------------------------------
   ln_tile = .false.     !  Use tiling (T) or not (F)
/
!-----------------------------------------------------------------------
&namtsd        !    Temperature & Salinity Data  (init/dmp)             (default: OFF)
!-----------------------------------------------------------------------
   !                       ! =T  read T-S fields for:
   ln_tsd_init = .true.          !  ocean initialisation
   ln_tsd_dmp  = .false.         !  T-S restoring   (see namtra_dmp)
   !
   cn_dir      = './'      !  root directory for the T-S data location
   !___________!_____________________!___________________!___________!_____________!________!___________!__________________!__________!_______________!
   !           !  file name          ! frequency (hours) ! variable  ! time interp.!  clim  ! 'yearly'/ ! weights filename ! rotation ! land/sea mask !
   !           !                     !  (if <0  months)  !   name    !   (logical) !  (T/F) ! 'monthly' !                  ! pairing  !    filename   !
   sn_tem = 'T_glorys12',       24       , 'votemper',   .false.   , .false. , 'daily'  ,    ''            ,    ''    ,    ''
   sn_sal = 'S_glorys12',       24       , 'vosaline',   .false.   , .false. , 'daily'  ,    ''            ,    ''    ,    ''
/
!-----------------------------------------------------------------------
&namwad        !   Wetting and Drying (WaD)                             (default: OFF)
!-----------------------------------------------------------------------
/
!-----------------------------------------------------------------------
&namcrs        !   coarsened grid (for outputs and/or TOP)              (ln_crs =T)
!-----------------------------------------------------------------------
/
!-----------------------------------------------------------------------
&namc1d        !   1D configuration options                             (ln_c1d =T default: PAPA station)
!-----------------------------------------------------------------------
/
!-----------------------------------------------------------------------
&namc1d_dyndmp !   U & V newtonian damping                              (ln_c1d =T default: OFF)
!-----------------------------------------------------------------------
/
!-----------------------------------------------------------------------
&namc1d_uvd    !   data: U & V currents                                 (ln_c1d =T default: OFF)
!-----------------------------------------------------------------------
/
!!======================================================================
!!            ***  Surface Boundary Condition namelists  ***          !!
!!                                                                    !!
!!   namsbc          surface boundary condition manager                 (default: NO selection)
!!   namsbc_flx      flux               formulation                     (ln_flx     =T)
!!   namsbc_blk      Bulk formulae formulation                          (ln_blk     =T)
!!   namsbc_cpl      CouPLed            formulation                     ("key_oasis3" )
!!   namsbc_sas      Stand-Alone Surface module                         (SAS_SRC  only)
!!   namsbc_iif      Ice-IF: use observed ice cover                     (nn_ice = 1   )
!!   namtra_qsr      penetrative solar radiation                        (ln_traqsr  =T)
!!   namsbc_ssr      sea surface restoring term (for T and/or S)        (ln_ssr     =T)
!!   namsbc_rnf      river runoffs                                      (ln_rnf     =T)
!!   namsbc_apr      Atmospheric Pressure                               (ln_apr_dyn =T)
!!   namsbc_iscpl    coupling option between land ice model and ocean   (ln_isfcav  =T)
!!   namsbc_wave     external fields from wave model                    (ln_wave    =T)
!!   namberg         iceberg floats                                     (ln_icebergs=T)
!!======================================================================
!
!-----------------------------------------------------------------------
&namsbc        !   Surface Boundary Condition manager                   (default: NO selection)
!-----------------------------------------------------------------------
   nn_fsbc     = 1         !  frequency of surface boundary condition computation
      !                    !  (control sea-ice & iceberg model call)
                     ! Type of air-sea fluxes 
   ln_blk      = .true.    !  Bulk formulation                          (T => fill namsbc_blk )
                     ! Sea-ice :
   nn_ice      = 2         !  =0 no ice boundary condition
      !                    !  =1 use observed ice-cover                 (  => fill namsbc_iif )
      !                    !  =2 or 3 for SI3 and CICE, respectively
   ln_ice_embd = .false.   !  =T embedded sea-ice (pressure + mass and salt exchanges)
      !                    !  =F levitating ice (no pressure, mass and salt exchanges)
                     ! Misc. options of sbc : 
   ln_traqsr   = .true.    !  Light penetration in the ocean            (T => fill namtra_qsr)
/
!-----------------------------------------------------------------------
&namsbc_flx    !   surface boundary condition : flux formulation        (ln_flx =T)
!-----------------------------------------------------------------------
/
!-----------------------------------------------------------------------
&namsbc_blk    !   namsbc_blk  generic Bulk formula                     (ln_blk =T)
!-----------------------------------------------------------------------
   !                    !  bulk algorithm :
   ln_NCAR     = .true.     ! "NCAR"      algorithm   (Large and Yeager 2008)
   ln_COARE_3p0 = .false.   ! "COARE 3.0" algorithm   (Fairall et al. 2003)
   ln_COARE_3p6 = .false.   ! "COARE 3.6" algorithm   (Edson et al. 2013)
   ln_ECMWF     = .false.   ! "ECMWF"     algorithm   (IFS cycle 45r1)
   !
   !! Bulk transfer coefficients over sea-ice: (relevant IF: nn_ice >=1 )
   ln_Cx_ice_cst = .true.     ! use constant ice-air bulk transfer coefficients (value given below)
      rn_Cd_i  = 1.e-3       ! sea-ice drag coefficient
      rn_Ce_i  = 1.4e-3       !    "    sublimation coefficient
      rn_Ch_i  = 1.4e-3       !    "    sensible heat flux coefficient
   cn_dir      = './'      !  root directory for the bulk data location
   !___________!_________________________!___________________!___________!_____________!________!___________!______________________________________!__________!_______________!
   !           !  file name              ! frequency (hours) ! variable  ! time interp.!  clim  ! 'yearly'/ !       weights filename               ! rotation ! land/sea mask !
   !           !                         !  (if <0  months)  !   name    !   (logical) !  (T/F) ! 'monthly' !                                      ! pairing  !    filename   !
   sn_wndi     = 'JRA55_uas'              ,         3        , 'uas'     ,   .true.    , .false. , 'yearly'  , 'weights_bicub'           , 'Uwnd'   , ''
   sn_wndj     = 'JRA55_vas'              ,         3        , 'vas'     ,   .true.    , .false. , 'yearly'  , 'weights_bicub'           , 'Vwnd'   , ''
   sn_qsr      = 'JRA55_rsds'             ,         3        , 'rsds'    ,   .true.    , .false. , 'yearly'  , 'weights_bilin'             , ''       , ''
   sn_qlw      = 'JRA55_rlds'             ,         3        , 'rlds'    ,   .true.    , .false. , 'yearly'  , 'weights_bilin'             , ''       , ''
   sn_tair     = 'JRA55_tas'              ,         3        , 'tas'     ,   .true.    , .false. , 'yearly'  , 'weights_bilin'             , ''       , ''
   sn_humi     = 'JRA55_huss'             ,         3        , 'huss'    ,   .true.    , .false. , 'yearly'  , 'weights_bilin'             , ''       , ''
   sn_prec     = 'JRA55_tpre'             ,         3        , 'tpre'    ,   .true.    , .false. , 'yearly'  , 'weights_bilin'             , ''       , ''
   sn_snow     = 'JRA55_prsn'             ,         3        , 'prsn'    ,   .true.    , .false. , 'yearly'  , 'weights_bilin'             , ''       , ''
   sn_slp      = 'JRA55_psl'              ,         3        , 'psl'     ,   .true.    , .false. , 'yearly'  , 'weights_bilin'             , ''       , ''
/
!-----------------------------------------------------------------------
&namsbc_cpl    !   coupled ocean/atmosphere model                       ("key_oasis3")
!-----------------------------------------------------------------------
/
!-----------------------------------------------------------------------
&namsbc_sas    !   Stand-Alone Surface module: ocean data               (SAS_SRC  only)
!-----------------------------------------------------------------------
   l_sasread   = .false.    !  =T Read in file ;  =F set all to 0. (see sbcssm)
/
!-----------------------------------------------------------------------
&namsbc_iif    !   Ice-IF : use observed ice cover                      (nn_ice = 1)
!-----------------------------------------------------------------------
/
!-----------------------------------------------------------------------
&namtra_qsr    !   penetrative solar radiation                          (ln_traqsr =T)
!-----------------------------------------------------------------------
   ln_qsr_rgb  = .true.      !  RGB light penetration (Red-Green-Blue)
/
!-----------------------------------------------------------------------
&namsbc_ssr    !   surface boundary condition : sea surface restoring   (ln_ssr =T)
!-----------------------------------------------------------------------
/
!-----------------------------------------------------------------------
&namsbc_rnf    !   runoffs                                              (ln_rnf =T)
!-----------------------------------------------------------------------
/
!-----------------------------------------------------------------------
&namsbc_apr    !   Atmospheric pressure used as ocean forcing           (ln_apr_dyn =T)
!-----------------------------------------------------------------------
/
!-----------------------------------------------------------------------
&namisf       !  Top boundary layer (ISF)                               (default: OFF)
!-----------------------------------------------------------------------
/
!-----------------------------------------------------------------------
&namsbc_wave   ! External fields from wave model                        (ln_wave=T)
!-----------------------------------------------------------------------
/
!-----------------------------------------------------------------------
&namberg       !   iceberg parameters                                   (default: OFF)
!-----------------------------------------------------------------------
/
!!======================================================================
!!               ***  Lateral boundary condition  ***                 !!
!!                                                                    !!
!!   namlbc        lateral momentum boundary condition                  (default: NO selection)
!!   namagrif      agrif nested grid   (read by child model only)       ("key_agrif")
!!   nam_tide      Tidal forcing                                        (default: OFF)
!!   nambdy        Unstructured open boundaries                         (default: OFF)
!!   nambdy_dta    Unstructured open boundaries - external data         (see  nambdy)
!!   nambdy_tide   tidal forcing at open boundaries                     (default: OFF)
!!======================================================================
!
!-----------------------------------------------------------------------
&namlbc        !   lateral momentum boundary condition                  (default: NO selection)
!-----------------------------------------------------------------------
   !                       !  free slip  !   partial slip  !   no slip   ! strong slip
   rn_shlat    =    2.     !  shlat = 0  !  0 < shlat < 2  !  shlat = 2  !  2 < shlat
/
!-----------------------------------------------------------------------
&namagrif      !  AGRIF zoom                                            ("key_agrif")
!-----------------------------------------------------------------------
/
!-----------------------------------------------------------------------
&nam_tide      !   tide parameters                                      (default: OFF)
!-----------------------------------------------------------------------
   ln_tide     = .false.       ! Activate tides
      ln_tide_dia   = .false.    !  Enable tidal diagnostic output 
      ln_tide_pot   = .false.               !  use tidal potential forcing
/
!-----------------------------------------------------------------------
&nambdy        !  unstructured open boundaries                          (default: OFF)
!-----------------------------------------------------------------------
   ln_bdy         = .true.    !  Use unstructured open boundaries
   nb_bdy         = 1         !  number of open boundary sets
   ln_coords_file = .true.    !  =T : read bdy coordinates from file
      cn_coords_file = 'coordinates_bdyr4_grid12.nc' !  bdy coordinates files
   ln_mask_file   = .false.   !  =T : read mask from file
      cn_mask_file = ''        !  name of mask file (if ln_mask_file=.TRUE.)
   cn_dyn2d       = 'flather' !
   nn_dyn2d_dta   =  1        !  = 0, bdy data are equal to the initial state
      !                       !  = 1, bdy data are read in 'bdydata   .nc' files
      !                       !  = 2, use tidal harmonic forcing data from files
      !                       !  = 3, use external data AND tidal harmonic forcing
   cn_dyn3d      =  'frs'     !
   nn_dyn3d_dta  =  1         !  = 0, bdy data are equal to the initial state
   !                          !  = 1, bdy data are read in 'bdydata   .nc' files
   cn_tra        =  'frs'     !
   nn_tra_dta    =  1         !  = 0, bdy data are equal to the initial state
   !                          !  = 1, bdy data are read in 'bdydata   .nc' files
   cn_ice        =  'frs'     !
   nn_ice_dta    =  1         !  = 0, bdy data are equal to the initial state
   !                          !  = 1, bdy data are read in 'bdydata   .nc' files
   !
   nn_rimwidth   = 4          !  width of the relaxation zone
/
!-----------------------------------------------------------------------
&nambdy_dta    !  open boundaries - external data                       (see nam_bdy)
!-----------------------------------------------------------------------
   ln_zinterp  = .false.      !  T if a vertical interpolation is required. Variables gdep[tuv] and e3[tuv] must exist in the file
   !                          !  automatically defined to T if the number of vertical levels in bdy dta /= jpk
   ln_full_vel = .false.      !  T if [uv]3d are "full" velocities and not only its baroclinic components
   !                          !  in this case, baroclinic and barotropic velocities will be recomputed -> [uv]2d not needed
   !
   cn_dir      = './'    !  root directory for the BDY data location
   !___________!_________________________!___________________!___________!_____________!________!___________!__________________!__________!_______________!
   !           !  file name              ! frequency (hours) ! variable  ! time interp.!  clim  ! 'yearly'/ ! weights filename ! rotation ! land/sea mask !
   !           !                         !  (if <0  months)  !   name    !   (logical) !  (T/F) ! 'monthly' !                  ! pairing  !    filename   !
   bn_ssh =   'bdyT_u2d_r4_grid12' ,         24      , 'sossheig' ,     .true.     , .false. ,  'yearly'  ,    ''    ,   ''   , ''
   bn_u2d =   'bdyU_u2d_r4_grid12' ,         24      , 'vobtcrtx' ,     .true.     , .false. ,  'yearly'  ,    ''    ,   ''   , ''
   bn_v2d =   'bdyV_u2d_r4_grid12' ,         24      , 'vobtcrty' ,     .true.     , .false. ,  'yearly'  ,    ''    ,   ''   , ''
   bn_u3d  =  'bdyU_u3d_r4_grid12' ,         24      , 'vozocrtx' ,     .true.     , .false. ,  'yearly'  ,    ''    ,   ''   , ''
   bn_v3d  =  'bdyV_u3d_r4_grid12' ,         24      , 'vomecrty' ,     .true.     , .false. ,  'yearly'  ,    ''    ,   ''   , ''
   bn_tem  =  'bdyT_tem_r4_grid12' ,         24      , 'votemper' ,     .true.     , .false. ,  'yearly'  ,    ''    ,   ''   , ''
   bn_sal  =  'bdyT_sal_r4_grid12' ,         24      , 'vosaline' ,     .true.     , .false. ,  'yearly'  ,    ''    ,   ''   , ''
   bn_a_i  =  'bdyT_ice_r4_grid12' ,         24      , 'ileadfra' ,     .true.     , .false. ,  'yearly'  ,    ''    ,   ''   , ''
   bn_h_i  =  'bdyT_ice_r4_grid12' ,         24      , 'iicethic' ,     .true.     , .false. ,  'yearly'  ,    ''    ,   ''   , ''
   bn_h_s  =  'bdyT_ice_r4_grid12' ,         24      , 'isnowthi' ,     .true.     , .false. ,  'yearly'  ,    ''    ,   ''   , ''
/
!-----------------------------------------------------------------------
&nambdy_tide   !  tidal forcing at open boundaries                      (default: OFF)
!-----------------------------------------------------------------------
/
!!======================================================================
!!                ***  Top/Bottom boundary condition  ***             !!
!!                                                                    !!
!!   namdrg        top/bottom drag coefficient                          (default: NO selection)
!!   namdrg_top    top    friction                                      (ln_drg_OFF=F & ln_isfcav=T)
!!   namdrg_bot    bottom friction                                      (ln_drg_OFF=F)
!!   nambbc        bottom temperature boundary condition                (default: OFF)
!!   nambbl        bottom boundary layer scheme                         (default: OFF)
!!======================================================================
!
!-----------------------------------------------------------------------
&namdrg        !   top/bottom drag coefficient                          (default: NO selection)
!-----------------------------------------------------------------------
   ln_loglayer = .true.   !  logarithmic drag: Cd = vkarmn/log(z/z0) |U|
   ln_drgimp   = .true.   !  implicit top/bottom friction flag
      ln_drgice_imp = .true. ! implicit ice-ocean drag
/
!-----------------------------------------------------------------------
&namdrg_top    !   TOP friction                                         (ln_drg_OFF =F & ln_isfcav=T)
!-----------------------------------------------------------------------
   rn_Cd0      =  1e-3    !  drag coefficient [-]
/
!-----------------------------------------------------------------------
&namdrg_bot    !   BOTTOM friction                                      (ln_drg_OFF =F)
!-----------------------------------------------------------------------
   rn_Cd0      =  2.5e-3    !  drag coefficient [-]
   rn_Cdmax    =  0.1      !  drag value maximum [-] (logarithmic drag)
   rn_ke0      =  2.5e-3       !  background kinetic energy  [m2/s2] (non-linear cases)
   rn_z0       =  3.e-3    !  roughness [m] (ln_loglayer=T)
/
!-----------------------------------------------------------------------
&nambbc        !   bottom temperature boundary condition                (default: OFF)
!-----------------------------------------------------------------------
   ln_trabbc   = .false.   !  Apply a geothermal heating at the ocean bottom
/
!-----------------------------------------------------------------------
&nambbl        !   bottom boundary layer scheme                         (default: OFF)
!-----------------------------------------------------------------------
   ln_trabbl   = .true.   !  Bottom Boundary Layer parameterisation flag
      nn_bbl_ldf  =  1        !  diffusive bbl (=1)   or not (=0)
      nn_bbl_adv  =  0        !  advective bbl (=1/2) or not (=0)
/
!!======================================================================
!!                        Tracer (T-S) namelists                      !!
!!                                                                    !!
!!   nameos        equation of state                                    (default: NO selection)
!!   namtra_adv    advection scheme                                     (default: NO selection)
!!   namtra_ldf    lateral diffusion scheme                             (default: NO selection)
!!   namtra_mle    mixed layer eddy param. (Fox-Kemper param.)          (default: OFF)
!!   namtra_eiv    eddy induced velocity param.                         (default: OFF)
!!   namtra_dmp    T & S newtonian damping                              (default: OFF)
!!======================================================================
!
!-----------------------------------------------------------------------
&nameos        !   ocean Equation Of Seawater                           (default: NO selection)
!-----------------------------------------------------------------------
   ln_teos10   = .false.         !  = Use TEOS-10
   ln_eos80    = .true.         !  = Use EOS80
/
!-----------------------------------------------------------------------
&namtra_adv    !   advection scheme for tracer                          (default: NO selection)
!-----------------------------------------------------------------------
   ln_traadv_fct = .true.  !  FCT scheme
      nn_fct_h   =  4            !  =2/4, horizontal 2nd / 4th order 
      nn_fct_v   =  2            !  =2/4, vertical   2nd / COMPACT 4th order 
/
!-----------------------------------------------------------------------
&namtra_ldf    !   lateral diffusion scheme for tracers                 (default: NO selection)
!-----------------------------------------------------------------------
   ln_traldf_blp   = .true.    !  bilaplacian operator
   ln_traldf_iso   = .true.    !  iso-neutral (Standard operator)
   ln_traldf_msc   = .true.    !  Method of Stabilizing Correction      (both operators)
   !
   !                       !  Coefficients:
   nn_aht_ijk_t    = 31      !  space/time variation of eddy coefficient:
      !                             !   =-20 (=-30)    read in eddy_diffusivity_2D.nc (..._3D.nc) file
      !                             !   =  0           constant 
      !                             !   = 10 F(k)      =ldf_c1d 
      !                             !   = 20 F(i,j)    =ldf_c2d 
      !                             !   = 21 F(i,j,t)  =Treguier et al. JPO 1997 formulation
      !                             !   = 30 F(i,j,k)  =ldf_c2d * ldf_c1d
      !                             !   = 31 F(i,j,k,t)=F(local velocity and grid-spacing)
      !                        !  time invariant coefficients:  aht0 = 1/2  Ud*Ld   (lap case) 
      !                             !                           or   = 1/12 Ud*Ld^3 (blp case)
      rn_Ud        = 0.01          !  lateral diffusive velocity [m/s] (nn_aht_ijk_t= 0, 10, 20, 30)
/
!-----------------------------------------------------------------------
&namtra_mle    !   mixed layer eddy parametrisation (Fox-Kemper)       (default: OFF)
!-----------------------------------------------------------------------
/
!-----------------------------------------------------------------------
&namtra_eiv    !   eddy induced velocity param.                         (default: OFF)
!-----------------------------------------------------------------------
/
!-----------------------------------------------------------------------
&namtra_dmp    !   tracer: T & S newtonian damping                      (default: OFF)
!-----------------------------------------------------------------------
/
!!======================================================================
!!                      ***  Dynamics namelists  ***                  !!
!!                                                                    !!
!!   nam_vvl       vertical coordinate options                          (default: z-star)
!!   namdyn_adv    formulation of the momentum advection                (default: NO selection)
!!   namdyn_vor    advection scheme                                     (default: NO selection)
!!   namdyn_hpg    hydrostatic pressure gradient                        (default: NO selection)
!!   namdyn_spg    surface pressure gradient                            (default: NO selection)
!!   namdyn_ldf    lateral diffusion scheme                             (default: NO selection)
!!   namdta_dyn    offline TOP: dynamics read in files                  (OFF_SRC only)
!!======================================================================
!
!-----------------------------------------------------------------------
&nam_vvl       !   vertical coordinate options                          (default: z-star)
!-----------------------------------------------------------------------